
##########################################################################
#               Crystallographic Information Format file
#               Produced by PyCifRW module
#
#  This is a CIF file.  CIF has been adopted by the International
#  Union of Crystallography as the standard for data archiving and
#  transmission.
#
#  For information on this file format, follow the CIF links at
#  http://www.iucr.org
##########################################################################

data_image0

_cell_length_a                          67.9933
_cell_length_b                          30.1254
_cell_length_c                          7.95581
_cell_angle_alpha                       122.729
_cell_angle_beta                        89.2326
_cell_angle_gamma                       89.9315
_symmetry_space_group_name_H-M          'P 1'
_space_group_name_Hall                  'P 1'
loop_
  _atom_site_type_symbol
  _atom_site_label
  _atom_site_fract_x
  _atom_site_fract_y
  _atom_site_fract_z
  _atom_site_charge
         C         C         0.63261   0.72607   0.00170   -0.019804           
         C         C         0.61209   0.71964   0.00122   -0.116092           
         C         C         0.59854   0.75545   0.00820   -0.146403           
         C         C         0.60395   0.80124   0.01348   0.006588  
         C         C         0.62457   0.80947   0.01714   0.100332  
         C         C         0.63818   0.77278   0.01340   0.105553  
         C         C         0.58906   0.83687   0.01413   0.083172  
         C         C         0.56946   0.81985   0.95760   -0.138745           
         C         C         0.55513   0.85285   0.95900   -0.112305           
         C         C         0.55974   0.90484   0.01690   0.051629  
         C         C         0.57921   0.92188   0.07096   -0.134911           
         C         C         0.59359   0.88879   0.06965   -0.129871           
         C         C         0.64648   0.68745   0.99334   0.090330  
         C         C         0.64026   0.64936   0.03377   -0.129119           
         C         C         0.65343   0.61335   0.02945   -0.124985           
         C         C         0.67361   0.61438   0.98904   0.042477  
         C         C         0.67994   0.65169   0.94601   -0.114462           
         C         C         0.66667   0.68645   0.94478   -0.153147           
         N         N         0.65650   0.79423   0.02389   -0.329203           
         C         C         0.65365   0.84154   0.03705   0.282371  
         N         N         0.63468   0.85092   0.02928   -0.387808           
         C         C         0.66965   0.87471   0.04697   0.003253  
         C         C         0.68957   0.86213   0.05199   -0.126286           
         C         C         0.70458   0.89263   0.04712   -0.098945           
         C         C         0.70018   0.93664   0.03589   0.060855  
         C         C         0.68027   0.95001   0.03706   -0.127896           
         C         C         0.66523   0.91992   0.04406   -0.106065           
         C         C         0.71981   0.54587   0.96164   0.198812  
         C         C         0.54510   0.94104   0.02312   0.062679  
         N         N         0.52679   0.92874   0.98275   -0.288281           
         C         C         0.51386   0.96517   0.98463   0.198245  
         C         C         0.51902   0.99786   0.91460   -0.178343           
         C         C         0.50556   0.03393   0.92407   -0.154650           
         C         C         0.73960   0.56079   0.96858   -0.140399           
         C         C         0.75486   0.53283   0.98426   -0.163604           
         C         C         0.75104   0.48748   0.98871   0.205053  
         C         C         0.73129   0.47176   0.97679   -0.136903           
         C         C         0.71592   0.50013   0.96367   -0.174353           
         C         C         0.68748   0.57822   0.99378   0.059230  
         N         N         0.70595   0.57860   0.95197   -0.304038           
         N         N         0.73395   0.95922   0.02532   -0.292328           
         C         C         0.71540   0.96794   0.01904   0.071213  
         H         H         0.60633   0.68486   0.99247   0.111982  
         H         H         0.58304   0.74689   0.00903   0.113176  
         H         H         0.56549   0.77967   0.90830   0.103240  
         H         H         0.54013   0.83940   0.91512   0.115031  
         H         H         0.58302   0.96187   0.11512   0.103271  
         H         H         0.60859   0.90234   0.10961   0.113096  
         H         H         0.62498   0.64868   0.07411   0.111675  
         H         H         0.64811   0.58461   0.06174   0.109900  
         H         H         0.69537   0.65151   0.90805   0.109891  
         H         H         0.67201   0.71137   0.89453   0.092670  
         H         H         0.66891   0.78396   0.06458   0.283135  
         H         H         0.69337   0.82798   0.05849   0.104723  
         H         H         0.71995   0.88314   0.05087   0.117434  
         H         H         0.67680   0.98409   0.02901   0.107073  
         H         H         0.64988   0.92933   0.03966   0.120960  
         H         H         0.55040   0.98055   0.06966   0.065405  
         H         H         0.53357   0.99381   0.84899   0.113956  
         H         H         0.50946   0.05899   0.86945   0.120825  
         H         H         0.74241   0.59518   0.96095   0.118018  
         H         H         0.76985   0.54563   0.98767   0.108991  
         H         H         0.72855   0.43636   0.97791   0.114457  
         H         H         0.70089   0.48680   0.95446   0.108469  
         H         H         0.68147   0.55237   0.03956   0.063990  
         H         H         0.70991   -0.00095  -0.00133  0.064764  
         C         C         0.13410   0.72596   0.49333   -0.017950           
         C         C         0.11383   0.71500   0.46583   -0.111468           
         C         C         0.10007   0.74854   0.46023   -0.148954           
         C         C         0.10513   0.79593   0.47606   0.006643  
         C         C         0.12551   0.80744   0.49741   0.099371  
         C         C         0.13922   0.77367   0.51112   0.101144  
         C         C         0.09007   0.82999   0.46945   0.084370  
         C         C         0.07033   0.82835   0.52459   -0.141784           
         C         C         0.05576   0.85947   0.51691   -0.111487           
         C         C         0.06029   0.89345   0.45141   0.052123  
         C         C         0.07992   0.89544   0.39720   -0.139589           
         C         C         0.09458   0.86495   0.40824   -0.126528           
         C         C         0.14819   0.68972   0.49911   0.084903  
         C         C         0.14182   0.65156   0.53855   -0.125347           
         C         C         0.15507   0.61740   0.54594   -0.123904           
         C         C         0.17537   0.61988   0.51486   0.042748  
         C         C         0.18186   0.65756   0.47445   -0.113397           
         C         C         0.16862   0.69111   0.46531   -0.145966           
         N         N         0.15730   0.79770   0.53562   -0.339365           
         C         C         0.15414   0.84300   0.53415   0.283898  
         N         N         0.13526   0.84964   0.51116   -0.386474           
         C         C         0.17017   0.87512   0.53603   0.012276  
         C         C         0.18998   0.85814   0.51139   -0.127194           
         C         C         0.20506   0.88788   0.50299   -0.094167           
         C         C         0.20085   0.93594   0.51994   0.058110  
         C         C         0.18111   0.95308   0.54609   -0.135046           
         C         C         0.16596   0.92322   0.55352   -0.108509           
         C         C         0.22135   0.54923   0.47738   0.201504  
         C         C         0.04548   0.92675   0.44093   0.062947  
         N         N         0.02753   0.92986   0.50298   -0.290834           
         C         C         0.01426   0.96504   0.50078   0.200752  
         C         C         0.01965   0.01318   0.52284   -0.174770           
         C         C         0.00552   0.04577   0.51796   -0.149013           
         C         C         0.24128   0.56194   0.47411   -0.140720           
         C         C         0.25640   0.53206   0.48083   -0.164164           
         C         C         0.25226   0.48711   0.48740   0.203800  
         C         C         0.23234   0.47361   0.48537   -0.136101           
         C         C         0.21716   0.50376   0.48029   -0.175160           
         C         C         0.18922   0.58389   0.52102   0.062554  
         N         N         0.20759   0.58313   0.47341   -0.303241           
         N         N         0.23467   0.95505   0.49027   -0.287539           
         C         C         0.21632   0.96915   0.51960   0.071979  
         H         H         0.10857   0.67814   0.44306   0.113676  
         H         H         0.08483   0.73598   0.43345   0.107782  
         H         H         0.06656   0.80295   0.57821   0.109228  
         H         H         0.04067   0.85853   0.56198   0.115760  
         H         H         0.08360   0.92177   0.34734   0.103844  
         H         H         0.10974   0.86750   0.36978   0.104439  
         H         H         0.12633   0.64934   0.56831   0.109563  
         H         H         0.14969   0.58876   0.57844   0.109612  
         H         H         0.19746   0.65864   0.44502   0.110394  
         H         H         0.17416   0.71745   0.42260   0.091760  
         H         H         0.16882   0.79287   0.60467   0.275414  
         H         H         0.19356   0.82096   0.49651   0.105373  
         H         H         0.22035   0.87524   0.48578   0.117560  
         H         H         0.17781   0.99034   0.55991   0.103627  
         H         H         0.15070   0.93595   0.57113   0.119250  
         H         H         0.05049   0.94887   0.37475   0.065792  
         H         H         0.03498   0.02508   0.54647   0.109083  
         H         H         0.00956   0.08281   0.53427   0.118892  
         H         H         0.24438   0.59609   0.46543   0.116842  
         H         H         0.27150   0.54301   0.47519   0.108935  
         H         H         0.22932   0.43840   0.48707   0.114860  
         H         H         0.20197   0.49203   0.47762   0.108929  
         H         H         0.18325   0.55869   0.56992   0.064424  
         H         H         0.21141   0.00804   0.55375   0.061422  
         C         C         0.86654   0.22510   -0.00038  -0.020769           
         C         C         0.88707   0.21882   -0.00043  -0.116595           
         C         C         0.90058   0.25360   -0.00055  -0.145110           
         C         C         0.89519   0.29887   0.00055   0.006485  
         C         C         0.87450   0.30722   0.00559   0.099325  
         C         C         0.86094   0.27128   0.00728   0.108614  
         C         C         0.91001   0.33395   -0.00328  0.080658  
         C         C         0.93044   0.32405   0.99500   -0.137048           
         C         C         0.94447   0.35732   0.99414   -0.112050           
         C         C         0.93878   0.40246   0.99490   0.052917  
         C         C         0.91856   0.41212   0.99328   -0.135847           
         C         C         0.90449   0.37880   0.99397   -0.131519           
         C         C         0.85273   0.18669   0.99262   0.089198  
         C         C         0.85892   0.14804   0.02983   -0.129530           
         C         C         0.84579   0.11209   0.02585   -0.123928           
         C         C         0.82568   0.11370   0.98871   0.039784  
         C         C         0.81940   0.15142   0.94807   -0.112071           
         C         C         0.83263   0.18614   0.94671   -0.153482           
         N         N         0.84256   0.29282   0.01886   -0.329930           
         C         C         0.84528   0.33958   0.02791   0.279021  
         N         N         0.86424   0.34841   0.01651   -0.381694           
         C         C         0.82928   0.37282   0.03742   0.005034  
         C         C         0.80934   0.35955   0.03702   -0.125215           
         C         C         0.79437   0.39020   0.03221   -0.098145           
         C         C         0.79882   0.43533   0.02869   0.061465  
         C         C         0.81871   0.44930   0.03487   -0.127886           
         C         C         0.83372   0.41873   0.03951   -0.107574           
         C         C         0.77935   0.04832   0.97802   0.199499  
         C         C         0.95295   0.43924   -0.00020  0.060293  
         N         N         0.97173   0.43353   0.00725   -0.290360           
         C         C         0.98462   0.46902   0.00262   0.192859  
         C         C         0.98077   0.49525   0.90335   -0.173270           
         C         C         0.99429   0.53013   0.90602   -0.159631           
         C         C         0.75969   0.06661   0.00831   -0.139838           
         C         C         0.74446   0.03924   0.02873   -0.161630           
         C         C         0.74814   0.99092   0.01228   0.206169  
         C         C         0.76779   0.97255   0.98157   -0.136858           
         C         C         0.78313   0.00035   0.96436   -0.174883           
         C         C         0.81179   0.07787   0.99500   0.061215  
         N         N         0.79324   0.08051   0.96526   -0.303628           
         N         N         0.76520   0.45550   0.00035   -0.294947           
         C         C         0.78365   0.46752   0.01668   0.075866  
         H         H         0.89293   0.18446   0.99364   0.107599  
         H         H         0.91604   0.24369   0.99298   0.111605  
         H         H         0.93552   0.28979   0.99469   0.108023  
         H         H         0.96009   0.34955   0.99433   0.114858  
         H         H         0.91389   0.44665   0.99271   0.102389  
         H         H         0.88895   0.38687   0.99310   0.110035  
         H         H         0.87410   0.14685   0.06812   0.112604  
         H         H         0.85101   0.08307   0.05679   0.110859  
         H         H         0.80407   0.15157   0.91139   0.109385  
         H         H         0.82741   0.21146   0.89847   0.092745  
         H         H         0.83020   0.28390   0.06688   0.282972  
         H         H         0.80546   0.32477   0.03892   0.105556  
         H         H         0.77898   0.38029   0.03138   0.114465  
         H         H         0.82227   0.48405   0.03150   0.106721  
         H         H         0.84910   0.42848   0.03845   0.122238  
         H         H         0.94662   0.47308   0.00104   0.064144  
         H         H         0.96723   0.48721   0.82070   0.113100  
         H         H         0.99141   0.55039   0.82970   0.123224  
         H         H         0.75696   0.10349   0.01767   0.118391  
         H         H         0.72958   0.05518   0.05549   0.107305  
         H         H         0.77047   0.93540   0.97014   0.114931  
         H         H         0.79811   0.98499   0.93993   0.109980  
         H         H         0.81787   0.05042   0.03227   0.064797  
         H         H         0.78915   0.50255   0.02198   0.061504  
         C         C         0.36774   0.22242   0.49100   -0.018522           
         C         C         0.38816   0.21792   0.50554   -0.116815           
         C         C         0.40169   0.25317   0.50864   -0.143567           
         C         C         0.39640   0.29728   0.50130   0.003972  
         C         C         0.37578   0.30365   0.49070   0.101251  
         C         C         0.36226   0.26604   0.48082   0.111270  
         C         C         0.41132   0.33274   0.50144   0.080223  
         C         C         0.43173   0.32215   0.49641   -0.141634           
         C         C         0.44585   0.35476   0.49255   -0.111893           
         C         C         0.44030   0.40027   0.49540   0.052027  
         C         C         0.42010   0.41107   0.50000   -0.133769           
         C         C         0.40594   0.37818   0.50229   -0.131177           
         C         C         0.35376   0.18615   0.49680   0.092581  
         C         C         0.35987   0.13594   0.45142   -0.116118           
         C         C         0.34674   0.10167   0.45894   -0.120223           
         C         C         0.32671   0.11518   0.50587   0.049934  
         C         C         0.32055   0.16562   0.55636   -0.121612           
         C         C         0.33379   0.20034   0.55493   -0.153142           
         N         N         0.34399   0.28468   0.47129   -0.318781           
         C         C         0.34651   0.33205   0.48552   0.281179  
         N         N         0.36548   0.34391   0.49528   -0.386209           
         C         C         0.33040   0.36542   0.49785   0.005488  
         C         C         0.31046   0.35286   0.50219   -0.129153           
         C         C         0.29544   0.38462   0.50544   -0.096646           
         C         C         0.29987   0.43045   0.50660   0.061179  
         C         C         0.31978   0.44400   0.51031   -0.127337           
         C         C         0.33479   0.41218   0.50615   -0.108267           
         C         C         0.28001   0.05427   0.51552   0.191624  
         C         C         0.45465   0.43630   0.49703   0.062361  
         N         N         0.47340   0.42950   0.49975   -0.288984           
         C         C         0.48643   0.46469   0.49461   0.196529  
         C         C         0.48297   0.48957   0.38965   -0.177242           
         C         C         0.49646   0.52488   0.39481   -0.156588           
         C         C         0.26054   0.06286   0.47927   -0.142944           
         C         C         0.24534   0.03079   0.46805   -0.166426           
         C         C         0.24896   0.98936   0.49722   0.197776  
         C         C         0.26841   0.98087   0.53423   -0.135034           
         C         C         0.28369   0.01272   0.54408   -0.172622           
         C         C         0.31262   0.07770   0.49683   0.057072  
         N         N         0.29401   0.08902   0.52262   -0.298944           
         N         N         0.26621   0.45339   0.49130   -0.293753           
         C         C         0.28477   0.46413   0.50307   0.071513  
         H         H         0.39376   0.18681   0.52268   0.112530  
         H         H         0.41708   0.24583   0.52047   0.111068  
         H         H         0.43667   0.28765   0.49500   0.107313  
         H         H         0.46145   0.34604   0.48814   0.115892  
         H         H         0.41554   0.44612   0.50256   0.102548  
         H         H         0.39042   0.38696   0.50444   0.112615  
         H         H         0.37507   0.12344   0.40668   0.116137  
         H         H         0.35189   0.06318   0.42283   0.108505  
         H         H         0.30514   0.17651   0.59686   0.111020  
         H         H         0.32875   0.24035   0.61268   0.093927  
         H         H         0.33108   0.26587   0.45100   0.283475  
         H         H         0.30661   0.31809   0.50426   0.104147  
         H         H         0.28005   0.37522   0.50911   0.116060  
         H         H         0.32330   0.47965   0.51294   0.107393  
         H         H         0.35015   0.42183   0.50387   0.123828  
         H         H         0.44852   0.47079   0.50151   0.065458  
         H         H         0.46974   0.48025   0.30160   0.114591  
         H         H         0.49389   0.54420   0.31441   0.123110  
         H         H         0.25797   0.09452   0.45452   0.119238  
         H         H         0.23074   0.03645   0.42799   0.105084  
         H         H         0.27094   0.94908   0.55835   0.116222  
         H         H         0.29841   0.00665   0.58026   0.109732  
         H         H         0.31860   0.03962   0.46205   0.065565  
         H         H         0.29040   0.49935   0.51067   0.064101  
         C         C         0.13271   0.77246   0.99283   -0.022286           
         C         C         0.11260   0.77559   0.96107   -0.118223           
         C         C         0.09878   0.73970   0.94917   -0.147049           
         C         C         0.10374   0.69638   0.96223   0.005737  
         C         C         0.12408   0.69045   0.98432   0.100759  
         C         C         0.13779   0.72881   0.00458   0.109824  
         C         C         0.08861   0.66102   0.95842   0.082452  
         C         C         0.06917   0.68001   0.02471   -0.136706           
         C         C         0.05467   0.64783   0.02604   -0.110121           
         C         C         0.05903   0.59513   0.96175   0.049683  
         C         C         0.07835   0.57613   0.89712   -0.134268           
         C         C         0.09290   0.60830   0.89500   -0.129020           
         C         C         0.14703   0.81025   0.00247   0.090614  
         C         C         0.14127   0.86169   0.05969   -0.119345           
         C         C         0.15484   0.89739   0.06845   -0.118550           
         C         C         0.17489   0.88377   0.02318   0.048427  
         C         C         0.18075   0.83231   0.96318   -0.116894           
         C         C         0.16713   0.79647   0.95104   -0.157569           
         N         N         0.15572   0.71089   0.02562   -0.318737           
         C         C         0.15279   0.66311   0.00808   0.281101  
         N         N         0.13385   0.65040   0.98596   -0.392421           
         C         C         0.16886   0.63053   0.00197   0.005307  
         C         C         0.18868   0.64251   0.98879   -0.130949           
         C         C         0.20388   0.61157   0.98773   -0.098961           
         C         C         0.19977   0.56764   0.00019   0.060683  
         C         C         0.17996   0.55498   0.00819   -0.126384           
         C         C         0.16470   0.58557   0.00736   -0.106099           
         C         C         0.22138   0.94298   0.99431   0.200521  
         C         C         0.04413   0.56023   0.96062   0.065078  
         N         N         0.02570   0.57318   0.99532   -0.283970           
         C         C         0.01247   0.53852   0.00130   0.200651  
         C         C         0.01638   0.51240   0.10053   -0.182920           
         C         C         0.00271   0.47799   0.09986   -0.152970           
         C         C         0.24128   0.92851   0.98745   -0.136895           
         C         C         0.25648   0.95937   0.98883   -0.161711           
         C         C         0.25240   0.00660   -0.00180  0.200487  
         C         C         0.23251   0.01988   -0.00371  -0.138994           
         C         C         0.21727   0.98910   0.99538   -0.175649           
         C         C         0.18913   0.92165   0.03698   0.062741  
         N         N         0.20746   0.90840   0.99023   -0.297397           
         N         N         0.23373   0.54260   0.98167   -0.291376           
         C         C         0.21541   0.53572   0.00724   0.071248  
         H         H         0.10756   0.80621   0.93842   0.108217  
         H         H         0.08353   0.74512   0.92396   0.114629  
         H         H         0.06565   0.72109   0.08158   0.107619  
         H         H         0.03978   0.66260   0.07843   0.116085  
         H         H         0.08190   0.53546   0.84703   0.103910  
         H         H         0.10783   0.59348   0.84725   0.114554  
         H         H         0.12596   0.87387   0.09985   0.114999  
         H         H         0.14994   0.93678   0.11291   0.108193  
         H         H         0.19619   0.82141   0.92519   0.112292  
         H         H         0.17197   0.75603   0.88872   0.096455  
         H         H         0.16854   0.73073   0.05849   0.284170  
         H         H         0.19227   0.67593   0.97692   0.103843  
         H         H         0.21919   0.62035   0.97705   0.118265  
         H         H         0.17668   0.52086   0.01675   0.107330  
         H         H         0.14941   0.57656   0.01711   0.121035  
         H         H         0.04936   0.52128   0.92363   0.066434  
         H         H         0.03005   0.52029   0.18101   0.116347  
         H         H         0.00553   0.45789   0.17691   0.121774  
         H         H         0.24429   0.89248   0.98335   0.120351  
         H         H         0.27162   0.94701   0.98435   0.109888  
         H         H         0.22957   0.05501   0.99364   0.116420  
         H         H         0.20213   -0.00043  0.98801   0.109321  
         H         H         0.18335   0.96133   0.08957   0.063226  
         H         H         0.21056   0.50593   0.03797   0.062575  
         C         C         0.63370   0.77829   0.52252   -0.016970           
         C         C         0.61322   0.78624   0.52939   -0.114866           
         C         C         0.59953   0.75088   0.52215   -0.143738           
         C         C         0.60467   0.70421   0.51185   0.005155  
         C         C         0.62529   0.69510   0.50628   0.100938  
         C         C         0.63908   0.73107   0.50807   0.106029  
         C         C         0.58960   0.66881   0.50935   0.083000  
         C         C         0.56925   0.68065   0.51939   -0.141546           
         C         C         0.55494   0.64768   0.51786   -0.112634           
         C         C         0.56027   0.60075   0.50559   0.051713  
         C         C         0.58041   0.58872   0.49616   -0.133867           
         C         C         0.59474   0.62178   0.49785   -0.133038           
         C         C         0.64765   0.81622   0.52816   0.086580  
         C         C         0.64152   0.85462   0.48930   -0.128509           
         C         C         0.65473   0.89007   0.49073   -0.125536           
         C         C         0.67484   0.88815   0.52700   0.040799  
         C         C         0.68106   0.85056   0.56855   -0.113149           
         C         C         0.66778   0.81624   0.57201   -0.151048           
         N         N         0.65732   0.70849   0.49364   -0.328052           
         C         C         0.65428   0.66137   0.48110   0.281798  
         N         N         0.63525   0.65306   0.49183   -0.385026           
         C         C         0.67010   0.62716   0.46827   0.004586  
         C         C         0.69009   0.63879   0.46096   -0.126455           
         C         C         0.70492   0.60738   0.46300   -0.097152           
         C         C         0.70031   0.56346   0.47408   0.059914  
         C         C         0.68035   0.55095   0.47488   -0.126702           
         C         C         0.66546   0.58191   0.47018   -0.107953           
         C         C         0.72130   0.95352   0.54409   0.200186  
         C         C         0.54585   0.56435   0.49961   0.062857  
         N         N         0.52709   0.57129   0.49753   -0.289648           
         C         C         0.51417   0.53550   0.49981   0.198436  
         C         C         0.51769   0.51036   0.60367   -0.177634           
         C         C         0.50416   0.47518   0.59904   -0.155669           
         C         C         0.74088   0.93458   0.51022   -0.138734           
         C         C         0.75609   0.96168   0.48813   -0.163317           
         C         C         0.75245   0.01030   0.50700   0.204401  
         C         C         0.73292   0.02967   0.54377   -0.138593           
         C         C         0.71759   0.00210   0.56249   -0.175335           
         C         C         0.68889   0.92339   0.51879   0.061205  
         N         N         0.70726   0.92170   0.55681   -0.301557           
         N         N         0.73410   0.53987   0.47563   -0.290820           
         C         C         0.71560   0.53199   0.48961   0.071891  
         H         H         0.60761   0.82213   0.54551   0.113686  
         H         H         0.58413   0.76138   0.52986   0.109293  
         H         H         0.56449   0.71637   0.52882   0.107047  
         H         H         0.53938   0.65720   0.52509   0.115652  
         H         H         0.58479   0.55258   0.48646   0.102374  
         H         H         0.61021   0.61195   0.49053   0.112874  
         H         H         0.62632   0.85582   0.45157   0.111974  
         H         H         0.64956   0.91891   0.45865   0.109730  
         H         H         0.69645   0.85012   0.60307   0.109946  
         H         H         0.67302   0.79076   0.61956   0.092518  
         H         H         0.66993   0.71821   0.45219   0.283632  
         H         H         0.69417   0.67293   0.45541   0.106126  
         H         H         0.72036   0.61616   0.45842   0.117332  
         H         H         0.67658   0.51694   0.48244   0.107404  
         H         H         0.65003   0.57312   0.47548   0.121031  
         H         H         0.55193   0.52940   0.49204   0.064595  
         H         H         0.53095   0.51954   0.69114   0.114877  
         H         H         0.50674   0.45596   0.67983   0.122476  
         H         H         0.74355   0.89745   0.49892   0.117309  
         H         H         0.77090   0.94515   0.45655   0.110928  
         H         H         0.73033   0.06727   0.55830   0.115878  
         H         H         0.70269   0.01808   0.59230   0.108595  
         H         H         0.68316   0.94934   0.47267   0.064927  
         H         H         0.71035   0.50192   0.51708   0.066142  
         C         C         0.36626   0.27435   0.99362   -0.016993           
         C         C         0.38669   0.28288   0.00562   -0.115130           
         C         C         0.40038   0.24850   0.00645   -0.145078           
         C         C         0.39513   0.20225   -0.00175  0.005621  
         C         C         0.37460   0.19283   0.99048   0.100168  
         C         C         0.36089   0.22791   0.98504   0.104366  
         C         C         0.41017   0.16693   -0.00368  0.084718  
         C         C         0.42939   0.18532   0.06508   -0.136183           
         C         C         0.44405   0.15191   0.05518   -0.113989           
         C         C         0.44010   0.09826   0.97676   0.051028  
         C         C         0.42092   0.08000   0.91242   -0.135702           
         C         C         0.40622   0.11345   0.92174   -0.131122           
         C         C         0.35234   0.31147   0.99203   0.086523  
         C         C         0.35859   0.34801   0.94384   -0.127755           
         C         C         0.34544   0.38313   0.94153   -0.124028           
         C         C         0.32533   0.38307   0.98577   0.042247  
         C         C         0.31895   0.34712   0.03545   -0.114338           
         C         C         0.33212   0.31260   0.03923   -0.148431           
         N         N         0.34267   0.20619   0.97721   -0.335725           
         C         C         0.34568   0.16106   0.97978   0.281743  
         N         N         0.36471   0.15251   0.98913   -0.390922           
         C         C         0.32974   0.13018   0.98910   0.008775  
         C         C         0.30972   0.14421   -0.00079  -0.127211           
         C         C         0.29495   0.11483   0.01537   -0.099943           
         C         C         0.29967   0.07085   0.02577   0.060415  
         C         C         0.31964   0.05697   0.01595   -0.131391           
         C         C         0.33441   0.08553   0.99517   -0.108324           
         C         C         0.27914   0.45102   0.01071   0.203232  
         C         C         0.45507   0.06157   0.96127   0.062615  
         N         N         0.47331   0.07440   0.00445   -0.285863           
         C         C         0.48632   0.03759   -0.00129  0.197663  
         C         C         0.48116   0.00484   0.06843   -0.181409           
         C         C         0.49462   0.96885   0.05931   -0.154805           
         C         C         0.25974   0.43181   0.97131   -0.141714           
         C         C         0.24465   0.45997   0.95405   -0.162163           
         C         C         0.24818   0.50992   0.98439   0.204091  
         C         C         0.26763   0.52878   0.02064   -0.141567           
         C         C         0.28287   0.50023   0.03488   -0.176787           
         C         C         0.31138   0.41849   0.97698   0.064850  
         N         N         0.29303   0.41888   0.02326   -0.299160           
         N         N         0.26638   0.04117   0.00183   -0.294404           
         C         C         0.28467   0.03822   0.03850   0.070530  
         H         H         0.39216   0.31830   0.01747   0.111912  
         H         H         0.41582   0.25850   0.01356   0.113624  
         H         H         0.43269   0.22676   0.13001   0.100995  
         H         H         0.45881   0.16626   0.10738   0.118588  
         H         H         0.41772   0.03864   0.85219   0.101611  
         H         H         0.39149   0.09881   0.87214   0.113924  
         H         H         0.37385   0.34794   0.90156   0.110077  
         H         H         0.35073   0.41030   0.90119   0.110137  
         H         H         0.30355   0.34803   0.07577   0.109069  
         H         H         0.32669   0.28771   0.08909   0.089022  
         H         H         0.33039   0.21352   0.92508   0.275315  
         H         H         0.30559   0.17856   0.99534   0.104528  
         H         H         0.27952   0.12510   0.02028   0.117952  
         H         H         0.32347   0.02281   0.02242   0.103872  
         H         H         0.34983   0.07494   0.98752   0.117815  
         H         H         0.44996   0.02132   0.90623   0.064459  
         H         H         0.46659   0.00894   0.13373   0.113977  
         H         H         0.49078   0.94383   0.11438   0.120681  
         H         H         0.25712   0.39381   0.95291   0.119494  
         H         H         0.22996   0.44343   0.91859   0.108763  
         H         H         0.27021   0.56700   0.04093   0.116012  
         H         H         0.29768   0.51613   0.06727   0.109403  
         H         H         0.31706   0.44277   0.92259   0.064383  
         H         H         0.29005   0.01035   0.07677   0.064675  
         C         C         0.86690   0.27628   0.51045   -0.017681           
         C         C         0.88743   0.28286   0.51137   -0.116175           
         C         C         0.90104   0.24741   0.50615   -0.145979           
         C         C         0.89564   0.20168   0.50127   0.005426  
         C         C         0.87504   0.19353   0.49867   0.099070  
         C         C         0.86134   0.22980   0.50080   0.105690  
         C         C         0.91042   0.16663   0.50561   0.081537  
         C         C         0.93038   0.16804   0.45540   -0.139602           
         C         C         0.94464   0.13706   0.46812   -0.112835           
         C         C         0.93962   0.10334   0.53359   0.052435  
         C         C         0.91979   0.10140   0.58226   -0.138369           
         C         C         0.90545   0.13178   0.56630   -0.125193           
         C         C         0.85304   0.31473   0.51727   0.086506  
         C         C         0.85928   0.35272   0.47621   -0.127205           
         C         C         0.84608   0.38835   0.47808   -0.122501           
         C         C         0.82587   0.38687   0.51604   0.037928  
         C         C         0.81955   0.34977   0.56009   -0.113716           
         C         C         0.83281   0.31542   0.56392   -0.151476           
         N         N         0.84309   0.20800   0.49067   -0.328193           
         C         C         0.84612   0.16085   0.47849   0.281474  
         N         N         0.86512   0.15183   0.48598   -0.386991           
         C         C         0.83034   0.12720   0.46904   0.004573  
         C         C         0.81035   0.13858   0.46116   -0.128007           
         C         C         0.79559   0.10755   0.46653   -0.099407           
         C         C         0.80034   0.06429   0.48129   0.060195  
         C         C         0.82033   0.05199   0.48265   -0.127965           
         C         C         0.83511   0.08262   0.47502   -0.108369           
         C         C         0.77924   0.45102   0.52484   0.202596  
         C         C         0.95415   0.07026   0.54889   0.062234  
         N         N         0.97226   0.06738   0.49128   -0.289595           
         C         C         0.98544   0.03243   0.49598   0.199808  
         C         C         0.98005   0.98438   0.47474   -0.175589           
         C         C         0.99417   0.95178   0.47971   -0.149747           
         C         C         0.76008   0.43043   0.47540   -0.139061           
         C         C         0.74503   0.45777   0.45285   -0.161943           
         C         C         0.74837   0.50818   0.48685   0.205883  
         C         C         0.76755   0.52872   0.53550   -0.142052           
         C         C         0.78270   0.50105   0.55558   -0.174847           
         C         C         0.81176   0.42174   0.50556   0.062842  
         N         N         0.79321   0.41936   0.53910   -0.300738           
         N         N         0.76669   0.04150   0.49207   -0.290817           
         C         C         0.78522   0.03307   0.50013   0.069890  
         H         H         0.89314   0.31795   0.52212   0.111678  
         H         H         0.91651   0.25741   0.51553   0.112120  
         H         H         0.93467   0.19348   0.40351   0.109085  
         H         H         0.95992   0.13813   0.42816   0.115756  
         H         H         0.91567   0.07543   0.63257   0.103644  
         H         H         0.89018   0.12940   0.60191   0.110197  
         H         H         0.87459   0.35342   0.43633   0.112072  
         H         H         0.85140   0.41678   0.44418   0.110697  
         H         H         0.80407   0.34965   0.59577   0.109205  
         H         H         0.82742   0.29047   0.61388   0.092645  
         H         H         0.83057   0.21790   0.45017   0.281821  
         H         H         0.80621   0.17211   0.45195   0.106215  
         H         H         0.78014   0.11590   0.46064   0.116013  
         H         H         0.82410   0.01855   0.49380   0.107084  
         H         H         0.85054   0.07421   0.48128   0.125073  
         H         H         0.94881   0.04816   0.61410   0.065886  
         H         H         0.96473   0.97242   0.45100   0.111165  
         H         H         0.99013   0.91471   0.46320   0.119191  
         H         H         0.75758   0.39201   0.45349   0.118197  
         H         H         0.73057   0.44011   0.40928   0.109278  
         H         H         0.76995   0.56750   0.56035   0.115985  
         H         H         0.79726   0.51823   0.59749   0.109616  
         H         H         0.81762   0.44799   0.46093   0.064647  
         H         H         0.79068   0.00273   0.52495   0.065471 

