data_crystal
 
_cell_length_a    15.10940
_cell_length_b    15.10410
_cell_length_c    6.24233
_cell_angle_alpha 89.27860
_cell_angle_beta  92.68070
_cell_angle_gamma 120.05500
 
_symmetry_space_group_name_Hall 'P 1'
_symmetry_space_group_name_H-M  'P 1'
 
loop_
_symmetry_equiv_pos_as_xyz
 'x,y,z' 
 
loop_
_atom_site_label
_atom_site_type_symbol
_atom_site_fract_x
_atom_site_fract_y
_atom_site_fract_z
_atom_site_charge
B          B       0.05242   0.10565   0.24686   0.7175050000
O          O       0.38574   0.77172   0.25017  -0.5697270000
C          C       0.22014   0.44011   0.24397  -0.2434010000
B          B       0.89241   0.94503   0.25002   0.7188460000
O          O       0.22680   0.61229   0.24956  -0.5705280000
C          C       0.55785   0.77812   0.24698  -0.2407840000
B          B       0.05296   0.94561   0.24816   0.7190290000
O          O       0.38529   0.61255   0.23064  -0.5698550000
C          C       0.21991   0.77793   0.25211  -0.2405090000
B          B       0.94738   0.89561   0.74784   0.7182010000
O          O       0.61493   0.22964   0.76084  -0.5706760000
C          C       0.78031   0.56108   0.74238  -0.2429010000
B          B       0.10793   0.05616   0.75060   0.7197390000
O          O       0.77351   0.38865   0.74197  -0.5709690000
C          C       0.44257   0.22324   0.75438  -0.2420940000
B          B       0.94758   0.05591   0.75237   0.7182610000
O          O       0.61517   0.38882   0.75804  -0.5715360000
C          C       0.78074   0.22339   0.75873  -0.2422130000
B          B       0.43922   0.71899   0.24230   0.7203170000
B          B       0.27928   0.71875   0.25078   0.7208490000
B          B       0.27928   0.55864   0.24088   0.7217210000
B          B       0.56126   0.28238   0.75823   0.7227260000
B          B       0.72121   0.28243   0.75440   0.7218690000
B          B       0.72121   0.44256   0.74735   0.7227080000
O          O       0.10521   0.05206   0.24197  -0.5724690000
O          O       0.94610   0.05158   0.25078  -0.5721320000
O          O       0.94651   0.89274   0.25006  -0.5719010000
O          O       0.89477   0.94937   0.74984  -0.5713760000
O          O       0.05385   0.94967   0.74987  -0.5728980000
O          O       0.05399   0.10857   0.75083  -0.5718410000
C          C       0.11234   0.38528   0.24330  -0.0639180000
C          C       0.21910   0.27833   0.24904  -0.0554890000
H          H       0.07128   0.42745   0.24115   0.1035980000
H          H       0.26004   0.23595   0.25135   0.1045430000
C          C       0.61211   0.72567   0.22263  -0.0649100000
C          C       0.72030   0.93844   0.27544  -0.0558220000
H          H       0.56953   0.64282   0.20218   0.1046090000
H          H       0.76301   0.02132   0.29698   0.1038780000
C          C       0.27254   0.88562   0.24315  -0.0653050000
C          C       0.05919   0.77889   0.26021  -0.0540340000
H          H       0.35556   0.92692   0.23607   0.1044400000
H          H       0.97601   0.73753   0.26649   0.1050850000
C          C       0.88823   0.61634   0.75617  -0.0641940000
C          C       0.78045   0.72241   0.72683  -0.0550370000
H          H       0.92982   0.57472   0.76784   0.1040480000
H          H       0.73891   0.76420   0.71439   0.1046390000
C          C       0.38780   0.27610   0.75919  -0.0645170000
C          C       0.28057   0.06217   0.74214  -0.0540890000
H          H       0.42991   0.35935   0.76569   0.1043710000
H          H       0.23834   0.97881   0.73511   0.1037850000
C          C       0.72901   0.11626   0.78163  -0.0626930000
C          C       0.94097   0.22245   0.73785  -0.0546340000
H          H       0.64666   0.07533   0.80066   0.1034970000
H          H       0.02362   0.26349   0.72183   0.1044230000
C          C       0.38718   0.11546   0.74458  -0.0651330000
C          C       0.28117   0.22302   0.75640  -0.0549820000
H          H       0.42874   0.07395   0.73865   0.1046300000
H          H       0.23953   0.26459   0.76153   0.1049420000
C          C       0.72735   0.61585   0.72666  -0.0637950000
C          C       0.94155   0.72293   0.75675  -0.0550490000
H          H       0.64398   0.57375   0.71371   0.1041520000
H          H       0.02498   0.76518   0.76886   0.1042560000
C          C       0.88759   0.27558   0.73779  -0.0648230000
C          C       0.78214   0.06291   0.78057  -0.0560220000
H          H       0.92829   0.35834   0.72039   0.1041610000
H          H       0.74150   0.98010   0.79833   0.1040920000
C          C       0.61375   0.88533   0.27451  -0.0642400000
C          C       0.71869   0.77848   0.22465  -0.0552550000
H          H       0.57265   0.92654   0.29504   0.1045970000
H          H       0.76004   0.73732   0.20532   0.1049290000
C          C       0.27266   0.38488   0.24717  -0.0631460000
C          C       0.05854   0.27872   0.24411  -0.0537030000
H          H       0.35594   0.42637   0.24802   0.1038120000
H          H       0.97511   0.23698   0.24170   0.1042550000
C          C       0.11240   0.72557   0.26079  -0.0645720000
C          C       0.21961   0.93921   0.24252  -0.0559920000
H          H       0.07091   0.64242   0.26813   0.1039760000
H          H       0.26107   0.02245   0.23480   0.1044870000
C          C       0.11212   0.88655   0.25106  -0.2340010000
C          C       0.11135   0.22384   0.24709  -0.2345170000
C          C       0.77423   0.88575   0.25023  -0.2337400000
C          C       0.88881   0.11520   0.75738  -0.2336240000
C          C       0.88828   0.77736   0.74322  -0.2352720000
C          C       0.22610   0.11525   0.74900  -0.2346550000
