data_crystal
_symmetry_space_group_name_H-M    'P1'
_symmetry_Int_Tables_number       1
_symmetry_cell_setting            triclinic
loop_
_symmetry_equiv_pos_as_xyz
  x,y,z
_cell_length_a                    26.343
_cell_length_b                    26.343
_cell_length_c                    26.343
_cell_angle_alpha                 90.0000
_cell_angle_beta                  90.0000
_cell_angle_gamma                 90.0000
loop_
_atom_site_label
_atom_site_type_symbol
_atom_site_fract_x
_atom_site_fract_y
_atom_site_fract_z
Cu1       Cu        0.285     0.285     0.000  
O2        O         0.317     0.243     0.948  
C3        C         0.322     0.178     0.887  
C4        C         0.297     0.203     0.931  
C5        C         0.366     0.199     0.866  
H6        H         0.380     0.228     0.880  
Cu7       Cu        0.715     0.285     0.000  
Cu8       Cu        0.715     0.715     0.000  
Cu9       Cu        0.285     0.715     0.000  
Cu10      Cu       -0.000     0.285     0.285  
Cu11      Cu        0.715    -0.000     0.285  
Cu12      Cu       -0.000     0.715     0.285  
Cu13      Cu        0.285    -0.000     0.285  
Cu14      Cu       -0.000     0.715     0.715  
Cu15      Cu        0.285    -0.000     0.715  
Cu16      Cu       -0.000     0.285     0.715  
Cu17      Cu        0.715    -0.000     0.715  
Cu18      Cu        0.285     0.785     0.500  
Cu19      Cu        0.715     0.785     0.500  
Cu20      Cu        0.715     0.215     0.500  
Cu21      Cu        0.285     0.215     0.500  
Cu22      Cu       -0.000     0.785     0.785  
Cu23      Cu        0.715     0.500     0.785  
Cu24      Cu       -0.000     0.215     0.785  
Cu25      Cu        0.285     0.500     0.785  
Cu26      Cu       -0.000     0.215     0.215  
Cu27      Cu        0.285     0.500     0.215  
Cu28      Cu       -0.000     0.785     0.215  
Cu29      Cu        0.715     0.500     0.215  
Cu30      Cu        0.785     0.285     0.500  
Cu31      Cu        0.215     0.285     0.500  
Cu32      Cu        0.215     0.715     0.500  
Cu33      Cu        0.785     0.715     0.500  
Cu34      Cu        0.500     0.285     0.785  
Cu35      Cu        0.215    -0.000     0.785  
Cu36      Cu        0.500     0.715     0.785  
Cu37      Cu        0.785    -0.000     0.785  
Cu38      Cu        0.500     0.715     0.215  
Cu39      Cu        0.785    -0.000     0.215  
Cu40      Cu        0.500     0.285     0.215  
Cu41      Cu        0.215    -0.000     0.215  
Cu42      Cu        0.785     0.785     0.000  
Cu43      Cu        0.215     0.785     0.000  
Cu44      Cu        0.215     0.215     0.000  
Cu45      Cu        0.785     0.215     0.000  
Cu46      Cu        0.500     0.785     0.285  
Cu47      Cu        0.215     0.500     0.285  
Cu48      Cu        0.500     0.215     0.285  
Cu49      Cu        0.785     0.500     0.285  
Cu50      Cu        0.500     0.215     0.715  
Cu51      Cu        0.785     0.500     0.715  
Cu52      Cu        0.500     0.785     0.715  
Cu53      Cu        0.215     0.500     0.715  
O54       O         0.757     0.317     0.948  
O55       O         0.683     0.757     0.948  
O56       O         0.243     0.683     0.948  
O57       O         0.317     0.757     0.052  
O58       O         0.243     0.317     0.052  
O59       O         0.683     0.243     0.052  
O60       O         0.757     0.683     0.052  
O61       O         0.948     0.317     0.243  
O62       O         0.683     0.948     0.243  
O63       O         0.052     0.683     0.243  
O64       O         0.317     0.052     0.243  
O65       O         0.948     0.683     0.757  
O66       O         0.317     0.948     0.757  
O67       O         0.052     0.317     0.757  
O68       O         0.683     0.052     0.757  
O69       O         0.243     0.948     0.317  
O70       O         0.243     0.052     0.683  
O71       O         0.948     0.243     0.683  
O72       O         0.757     0.948     0.683  
O73       O         0.052     0.757     0.683  
O74       O         0.757     0.052     0.317  
O75       O         0.948     0.757     0.317  
O76       O         0.052     0.243     0.317  
O77       O         0.683     0.757     0.052  
O78       O         0.243     0.683     0.052  
O79       O         0.317     0.243     0.052  
O80       O         0.757     0.317     0.052  
O81       O         0.683     0.243     0.948  
O82       O         0.757     0.683     0.948  
O83       O         0.317     0.757     0.948  
O84       O         0.243     0.317     0.948  
O85       O         0.052     0.683     0.757  
O86       O         0.317     0.052     0.757  
O87       O         0.948     0.317     0.757  
O88       O         0.683     0.948     0.757  
O89       O         0.052     0.317     0.243  
O90       O         0.683     0.052     0.243  
O91       O         0.948     0.683     0.243  
O92       O         0.317     0.948     0.243  
O93       O         0.757     0.052     0.683  
O94       O         0.757     0.948     0.317  
O95       O         0.052     0.757     0.317  
O96       O         0.243     0.052     0.317  
O97       O         0.948     0.243     0.317  
O98       O         0.243     0.948     0.683  
O99       O         0.052     0.243     0.683  
O100      O         0.948     0.757     0.683  
O101      O         0.317     0.743     0.448  
O102      O         0.757     0.817     0.448  
O103      O         0.683     0.257     0.448  
O104      O         0.243     0.183     0.448  
O105      O         0.317     0.257     0.552  
O106      O         0.243     0.817     0.552  
O107      O         0.683     0.743     0.552  
O108      O         0.757     0.183     0.552  
O109      O         0.948     0.817     0.743  
O110      O         0.683     0.448     0.743  
O111      O         0.052     0.183     0.743  
O112      O         0.317     0.552     0.743  
O113      O         0.948     0.183     0.257  
O114      O         0.317     0.448     0.257  
O115      O         0.052     0.817     0.257  
O116      O         0.683     0.552     0.257  
O117      O         0.243     0.448     0.817  
O118      O         0.243     0.552     0.183  
O119      O         0.948     0.743     0.183  
O120      O         0.757     0.448     0.183  
O121      O         0.052     0.257     0.183  
O122      O         0.757     0.552     0.817  
O123      O         0.948     0.257     0.817  
O124      O         0.052     0.743     0.817  
O125      O         0.683     0.257     0.552  
O126      O         0.243     0.183     0.552  
O127      O         0.317     0.743     0.552  
O128      O         0.757     0.817     0.552  
O129      O         0.683     0.743     0.448  
O130      O         0.757     0.183     0.448  
O131      O         0.317     0.257     0.448  
O132      O         0.243     0.817     0.448  
O133      O         0.052     0.183     0.257  
O134      O         0.317     0.552     0.257  
O135      O         0.948     0.817     0.257  
O136      O         0.683     0.448     0.257  
O137      O         0.052     0.817     0.743  
O138      O         0.683     0.552     0.743  
O139      O         0.948     0.183     0.743  
O140      O         0.317     0.448     0.743  
O141      O         0.757     0.552     0.183  
O142      O         0.757     0.448     0.817  
O143      O         0.052     0.257     0.817  
O144      O         0.243     0.552     0.817  
O145      O         0.948     0.743     0.817  
O146      O         0.243     0.448     0.183  
O147      O         0.052     0.743     0.183  
O148      O         0.948     0.257     0.183  
O149      O         0.817     0.243     0.448  
O150      O         0.257     0.317     0.448  
O151      O         0.183     0.757     0.448  
O152      O         0.743     0.683     0.448  
O153      O         0.817     0.757     0.552  
O154      O         0.743     0.317     0.552  
O155      O         0.183     0.243     0.552  
O156      O         0.257     0.683     0.552  
O157      O         0.448     0.317     0.743  
O158      O         0.183     0.948     0.743  
O159      O         0.552     0.683     0.743  
O160      O         0.817     0.052     0.743  
O161      O         0.448     0.683     0.257  
O162      O         0.817     0.948     0.257  
O163      O         0.552     0.317     0.257  
O164      O         0.183     0.052     0.257  
O165      O         0.743     0.948     0.817  
O166      O         0.743     0.052     0.183  
O167      O         0.448     0.243     0.183  
O168      O         0.257     0.948     0.183  
O169      O         0.552     0.757     0.183  
O170      O         0.257     0.052     0.817  
O171      O         0.448     0.757     0.817  
O172      O         0.552     0.243     0.817  
O173      O         0.183     0.757     0.552  
O174      O         0.743     0.683     0.552  
O175      O         0.817     0.243     0.552  
O176      O         0.257     0.317     0.552  
O177      O         0.183     0.243     0.448  
O178      O         0.257     0.683     0.448  
O179      O         0.817     0.757     0.448  
O180      O         0.743     0.317     0.448  
O181      O         0.552     0.683     0.257  
O182      O         0.817     0.052     0.257  
O183      O         0.448     0.317     0.257  
O184      O         0.183     0.948     0.257  
O185      O         0.552     0.317     0.743  
O186      O         0.183     0.052     0.743  
O187      O         0.448     0.683     0.743  
O188      O         0.817     0.948     0.743  
O189      O         0.257     0.052     0.183  
O190      O         0.257     0.948     0.817  
O191      O         0.552     0.757     0.817  
O192      O         0.743     0.052     0.817  
O193      O         0.448     0.243     0.817  
O194      O         0.743     0.948     0.183  
O195      O         0.552     0.243     0.183  
O196      O         0.448     0.757     0.183  
O197      O         0.817     0.743     0.948  
O198      O         0.257     0.817     0.948  
O199      O         0.183     0.257     0.948  
O200      O         0.743     0.183     0.948  
O201      O         0.817     0.257     0.052  
O202      O         0.743     0.817     0.052  
O203      O         0.183     0.743     0.052  
O204      O         0.257     0.183     0.052  
O205      O         0.448     0.817     0.243  
O206      O         0.183     0.448     0.243  
O207      O         0.552     0.183     0.243  
O208      O         0.817     0.552     0.243  
O209      O         0.448     0.183     0.757  
O210      O         0.817     0.448     0.757  
O211      O         0.552     0.817     0.757  
O212      O         0.183     0.552     0.757  
O213      O         0.743     0.448     0.317  
O214      O         0.743     0.552     0.683  
O215      O         0.448     0.743     0.683  
O216      O         0.257     0.448     0.683  
O217      O         0.552     0.257     0.683  
O218      O         0.257     0.552     0.317  
O219      O         0.448     0.257     0.317  
O220      O         0.552     0.743     0.317  
O221      O         0.183     0.257     0.052  
O222      O         0.743     0.183     0.052  
O223      O         0.817     0.743     0.052  
O224      O         0.257     0.817     0.052  
O225      O         0.183     0.743     0.948  
O226      O         0.257     0.183     0.948  
O227      O         0.817     0.257     0.948  
O228      O         0.743     0.817     0.948  
O229      O         0.552     0.183     0.757  
O230      O         0.817     0.552     0.757  
O231      O         0.448     0.817     0.757  
O232      O         0.183     0.448     0.757  
O233      O         0.552     0.817     0.243  
O234      O         0.183     0.552     0.243  
O235      O         0.448     0.183     0.243  
O236      O         0.817     0.448     0.243  
O237      O         0.257     0.552     0.683  
O238      O         0.257     0.448     0.317  
O239      O         0.552     0.257     0.317  
O240      O         0.743     0.552     0.317  
O241      O         0.448     0.743     0.317  
O242      O         0.743     0.448     0.683  
O243      O         0.552     0.743     0.683  
O244      O         0.448     0.257     0.683  
C245      C         0.822     0.322     0.887  
C246      C         0.678     0.822     0.887  
C247      C         0.178     0.678     0.887  
C248      C         0.322     0.822     0.113  
C249      C         0.178     0.322     0.113  
C250      C         0.678     0.178     0.113  
C251      C         0.822     0.678     0.113  
C252      C         0.887     0.322     0.178  
C253      C         0.678     0.887     0.178  
C254      C         0.113     0.678     0.178  
C255      C         0.322     0.113     0.178  
C256      C         0.887     0.678     0.822  
C257      C         0.322     0.887     0.822  
C258      C         0.113     0.322     0.822  
C259      C         0.678     0.113     0.822  
C260      C         0.178     0.887     0.322  
C261      C         0.178     0.113     0.678  
C262      C         0.887     0.178     0.678  
C263      C         0.822     0.887     0.678  
C264      C         0.113     0.822     0.678  
C265      C         0.822     0.113     0.322  
C266      C         0.887     0.822     0.322  
C267      C         0.113     0.178     0.322  
C268      C         0.678     0.822     0.113  
C269      C         0.178     0.678     0.113  
C270      C         0.322     0.178     0.113  
C271      C         0.822     0.322     0.113  
C272      C         0.678     0.178     0.887  
C273      C         0.822     0.678     0.887  
C274      C         0.322     0.822     0.887  
C275      C         0.178     0.322     0.887  
C276      C         0.113     0.678     0.822  
C277      C         0.322     0.113     0.822  
C278      C         0.887     0.322     0.822  
C279      C         0.678     0.887     0.822  
C280      C         0.113     0.322     0.178  
C281      C         0.678     0.113     0.178  
C282      C         0.887     0.678     0.178  
C283      C         0.322     0.887     0.178  
C284      C         0.822     0.113     0.678  
C285      C         0.822     0.887     0.322  
C286      C         0.113     0.822     0.322  
C287      C         0.178     0.113     0.322  
C288      C         0.887     0.178     0.322  
C289      C         0.178     0.887     0.678  
C290      C         0.113     0.178     0.678  
C291      C         0.887     0.822     0.678  
C292      C         0.322     0.678     0.387  
C293      C         0.822     0.822     0.387  
C294      C         0.678     0.322     0.387  
C295      C         0.178     0.178     0.387  
C296      C         0.322     0.322     0.613  
C297      C         0.178     0.822     0.613  
C298      C         0.678     0.678     0.613  
C299      C         0.822     0.178     0.613  
C300      C         0.678     0.387     0.678  
C301      C         0.322     0.613     0.678  
C302      C         0.322     0.387     0.322  
C303      C         0.678     0.613     0.322  
C304      C         0.178     0.387     0.822  
C305      C         0.178     0.613     0.178  
C306      C         0.822     0.387     0.178  
C307      C         0.822     0.613     0.822  
C308      C         0.678     0.322     0.613  
C309      C         0.178     0.178     0.613  
C310      C         0.322     0.678     0.613  
C311      C         0.822     0.822     0.613  
C312      C         0.678     0.678     0.387  
C313      C         0.822     0.178     0.387  
C314      C         0.322     0.322     0.387  
C315      C         0.178     0.822     0.387  
C316      C         0.322     0.613     0.322  
C317      C         0.678     0.387     0.322  
C318      C         0.678     0.613     0.678  
C319      C         0.322     0.387     0.678  
C320      C         0.822     0.613     0.178  
C321      C         0.822     0.387     0.822  
C322      C         0.178     0.613     0.822  
C323      C         0.178     0.387     0.178  
C324      C         0.387     0.322     0.678  
C325      C         0.613     0.678     0.678  
C326      C         0.387     0.678     0.322  
C327      C         0.613     0.322     0.322  
C328      C         0.387     0.178     0.178  
C329      C         0.613     0.822     0.178  
C330      C         0.387     0.822     0.822  
C331      C         0.613     0.178     0.822  
C332      C         0.613     0.678     0.322  
C333      C         0.387     0.322     0.322  
C334      C         0.613     0.322     0.678  
C335      C         0.387     0.678     0.678  
C336      C         0.613     0.822     0.822  
C337      C         0.387     0.178     0.822  
C338      C         0.613     0.178     0.178  
C339      C         0.387     0.822     0.178  
C340      C         0.797     0.297     0.931  
C341      C         0.703     0.797     0.931  
C342      C         0.203     0.703     0.931  
C343      C         0.297     0.797     0.069  
C344      C         0.203     0.297     0.069  
C345      C         0.703     0.203     0.069  
C346      C         0.797     0.703     0.069  
C347      C         0.931     0.297     0.203  
C348      C         0.703     0.931     0.203  
C349      C         0.069     0.703     0.203  
C350      C         0.297     0.069     0.203  
C351      C         0.931     0.703     0.797  
C352      C         0.297     0.931     0.797  
C353      C         0.069     0.297     0.797  
C354      C         0.703     0.069     0.797  
C355      C         0.203     0.931     0.297  
C356      C         0.203     0.069     0.703  
C357      C         0.931     0.203     0.703  
C358      C         0.797     0.931     0.703  
C359      C         0.069     0.797     0.703  
C360      C         0.797     0.069     0.297  
C361      C         0.931     0.797     0.297  
C362      C         0.069     0.203     0.297  
C363      C         0.703     0.797     0.069  
C364      C         0.203     0.703     0.069  
C365      C         0.297     0.203     0.069  
C366      C         0.797     0.297     0.069  
C367      C         0.703     0.203     0.931  
C368      C         0.797     0.703     0.931  
C369      C         0.297     0.797     0.931  
C370      C         0.203     0.297     0.931  
C371      C         0.069     0.703     0.797  
C372      C         0.297     0.069     0.797  
C373      C         0.931     0.297     0.797  
C374      C         0.703     0.931     0.797  
C375      C         0.069     0.297     0.203  
C376      C         0.703     0.069     0.203  
C377      C         0.931     0.703     0.203  
C378      C         0.297     0.931     0.203  
C379      C         0.797     0.069     0.703  
C380      C         0.797     0.931     0.297  
C381      C         0.069     0.797     0.297  
C382      C         0.203     0.069     0.297  
C383      C         0.931     0.203     0.297  
C384      C         0.203     0.931     0.703  
C385      C         0.069     0.203     0.703  
C386      C         0.931     0.797     0.703  
C387      C         0.297     0.703     0.431  
C388      C         0.797     0.797     0.431  
C389      C         0.703     0.297     0.431  
C390      C         0.203     0.203     0.431  
C391      C         0.297     0.297     0.569  
C392      C         0.203     0.797     0.569  
C393      C         0.703     0.703     0.569  
C394      C         0.797     0.203     0.569  
C395      C         0.703     0.431     0.703  
C396      C         0.297     0.569     0.703  
C397      C         0.297     0.431     0.297  
C398      C         0.703     0.569     0.297  
C399      C         0.203     0.431     0.797  
C400      C         0.203     0.569     0.203  
C401      C         0.797     0.431     0.203  
C402      C         0.797     0.569     0.797  
C403      C         0.703     0.297     0.569  
C404      C         0.203     0.203     0.569  
C405      C         0.297     0.703     0.569  
C406      C         0.797     0.797     0.569  
C407      C         0.703     0.703     0.431  
C408      C         0.797     0.203     0.431  
C409      C         0.297     0.297     0.431  
C410      C         0.203     0.797     0.431  
C411      C         0.297     0.569     0.297  
C412      C         0.703     0.431     0.297  
C413      C         0.703     0.569     0.703  
C414      C         0.297     0.431     0.703  
C415      C         0.797     0.569     0.203  
C416      C         0.797     0.431     0.797  
C417      C         0.203     0.569     0.797  
C418      C         0.203     0.431     0.203  
C419      C         0.431     0.297     0.703  
C420      C         0.569     0.703     0.703  
C421      C         0.431     0.703     0.297  
C422      C         0.569     0.297     0.297  
C423      C         0.431     0.203     0.203  
C424      C         0.569     0.797     0.203  
C425      C         0.431     0.797     0.797  
C426      C         0.569     0.203     0.797  
C427      C         0.569     0.703     0.297  
C428      C         0.431     0.297     0.297  
C429      C         0.569     0.297     0.703  
C430      C         0.431     0.703     0.703  
C431      C         0.569     0.797     0.797  
C432      C         0.431     0.203     0.797  
C433      C         0.569     0.203     0.203  
C434      C         0.431     0.797     0.203  
C435      C         0.801     0.366     0.866  
C436      C         0.635     0.801     0.866  
C437      C         0.199     0.635     0.866  
C438      C         0.366     0.801     0.135  
C439      C         0.199     0.366     0.135  
C440      C         0.635     0.199     0.135  
C441      C         0.801     0.635     0.135  
C442      C         0.866     0.366     0.199  
C443      C         0.635     0.866     0.199  
C444      C         0.135     0.635     0.199  
C445      C         0.366     0.135     0.199  
C446      C         0.866     0.635     0.801  
C447      C         0.366     0.866     0.801  
C448      C         0.135     0.366     0.801  
C449      C         0.635     0.135     0.801  
C450      C         0.199     0.866     0.366  
C451      C         0.199     0.135     0.635  
C452      C         0.866     0.199     0.635  
C453      C         0.801     0.866     0.635  
C454      C         0.135     0.801     0.635  
C455      C         0.801     0.135     0.366  
C456      C         0.866     0.801     0.366  
C457      C         0.135     0.199     0.366  
C458      C         0.635     0.801     0.135  
C459      C         0.199     0.635     0.135  
C460      C         0.366     0.199     0.135  
C461      C         0.801     0.366     0.135  
C462      C         0.635     0.199     0.866  
C463      C         0.801     0.635     0.866  
C464      C         0.366     0.801     0.866  
C465      C         0.199     0.366     0.866  
C466      C         0.135     0.635     0.801  
C467      C         0.366     0.135     0.801  
C468      C         0.866     0.366     0.801  
C469      C         0.635     0.866     0.801  
C470      C         0.135     0.366     0.199  
C471      C         0.635     0.135     0.199  
C472      C         0.866     0.635     0.199  
C473      C         0.366     0.866     0.199  
C474      C         0.801     0.135     0.635  
C475      C         0.801     0.866     0.366  
C476      C         0.135     0.801     0.366  
C477      C         0.199     0.135     0.366  
C478      C         0.866     0.199     0.366  
C479      C         0.199     0.866     0.635  
C480      C         0.135     0.199     0.635  
C481      C         0.866     0.801     0.635  
C482      C         0.366     0.699     0.366  
C483      C         0.635     0.301     0.366  
C484      C         0.366     0.301     0.635  
C485      C         0.635     0.699     0.635  
C486      C         0.866     0.866     0.699  
C487      C         0.635     0.366     0.699  
C488      C         0.135     0.135     0.699  
C489      C         0.366     0.635     0.699  
C490      C         0.866     0.135     0.301  
C491      C         0.366     0.366     0.301  
C492      C         0.135     0.866     0.301  
C493      C         0.635     0.635     0.301  
C494      C         0.866     0.699     0.135  
C495      C         0.135     0.301     0.135  
C496      C         0.866     0.301     0.866  
C497      C         0.135     0.699     0.866  
C498      C         0.635     0.301     0.635  
C499      C         0.366     0.699     0.635  
C500      C         0.635     0.699     0.366  
C501      C         0.366     0.301     0.366  
C502      C         0.135     0.135     0.301  
C503      C         0.366     0.635     0.301  
C504      C         0.866     0.866     0.301  
C505      C         0.635     0.366     0.301  
C506      C         0.135     0.866     0.699  
C507      C         0.635     0.635     0.699  
C508      C         0.866     0.135     0.699  
C509      C         0.366     0.366     0.699  
C510      C         0.135     0.301     0.866  
C511      C         0.866     0.699     0.866  
C512      C         0.135     0.699     0.135  
C513      C         0.866     0.301     0.135  
C514      C         0.301     0.366     0.366  
C515      C         0.699     0.635     0.366  
C516      C         0.699     0.366     0.635  
C517      C         0.301     0.635     0.635  
C518      C         0.699     0.866     0.866  
C519      C         0.699     0.135     0.135  
C520      C         0.301     0.866     0.135  
C521      C         0.301     0.135     0.866  
C522      C         0.699     0.635     0.635  
C523      C         0.301     0.366     0.635  
C524      C         0.301     0.635     0.366  
C525      C         0.699     0.366     0.366  
C526      C         0.301     0.135     0.135  
C527      C         0.301     0.866     0.866  
C528      C         0.699     0.135     0.866  
C529      C         0.699     0.866     0.135  
H530      H         0.772     0.380     0.880  
H531      H         0.620     0.772     0.880  
H532      H         0.228     0.620     0.880  
H533      H         0.380     0.772     0.120  
H534      H         0.228     0.380     0.120  
H535      H         0.620     0.228     0.120  
H536      H         0.772     0.620     0.120  
H537      H         0.880     0.380     0.228  
H538      H         0.620     0.880     0.228  
H539      H         0.120     0.620     0.228  
H540      H         0.380     0.120     0.228  
H541      H         0.880     0.620     0.772  
H542      H         0.380     0.880     0.772  
H543      H         0.120     0.380     0.772  
H544      H         0.620     0.120     0.772  
H545      H         0.228     0.880     0.380  
H546      H         0.228     0.120     0.620  
H547      H         0.880     0.228     0.620  
H548      H         0.772     0.880     0.620  
H549      H         0.120     0.772     0.620  
H550      H         0.772     0.120     0.380  
H551      H         0.880     0.772     0.380  
H552      H         0.120     0.228     0.380  
H553      H         0.620     0.772     0.120  
H554      H         0.228     0.620     0.120  
H555      H         0.380     0.228     0.120  
H556      H         0.772     0.380     0.120  
H557      H         0.620     0.228     0.880  
H558      H         0.772     0.620     0.880  
H559      H         0.380     0.772     0.880  
H560      H         0.228     0.380     0.880  
H561      H         0.120     0.620     0.772  
H562      H         0.380     0.120     0.772  
H563      H         0.880     0.380     0.772  
H564      H         0.620     0.880     0.772  
H565      H         0.120     0.380     0.228  
H566      H         0.620     0.120     0.228  
H567      H         0.880     0.620     0.228  
H568      H         0.380     0.880     0.228  
H569      H         0.772     0.120     0.620  
H570      H         0.772     0.880     0.380  
H571      H         0.120     0.772     0.380  
H572      H         0.228     0.120     0.380  
H573      H         0.880     0.228     0.380  
H574      H         0.228     0.880     0.620  
H575      H         0.120     0.228     0.620  
H576      H         0.880     0.772     0.620  
H577      H         0.380     0.728     0.380  
H578      H         0.620     0.272     0.380  
H579      H         0.380     0.272     0.620  
H580      H         0.620     0.728     0.620  
H581      H         0.880     0.880     0.728  
H582      H         0.620     0.380     0.728  
H583      H         0.120     0.120     0.728  
H584      H         0.380     0.620     0.728  
H585      H         0.880     0.120     0.272  
H586      H         0.380     0.380     0.272  
H587      H         0.120     0.880     0.272  
H588      H         0.620     0.620     0.272  
H589      H         0.880     0.728     0.120  
H590      H         0.120     0.272     0.120  
H591      H         0.880     0.272     0.880  
H592      H         0.120     0.728     0.880  
H593      H         0.620     0.272     0.620  
H594      H         0.380     0.728     0.620  
H595      H         0.620     0.728     0.380  
H596      H         0.380     0.272     0.380  
H597      H         0.120     0.120     0.272  
H598      H         0.380     0.620     0.272  
H599      H         0.880     0.880     0.272  
H600      H         0.620     0.380     0.272  
H601      H         0.120     0.880     0.728  
H602      H         0.620     0.620     0.728  
H603      H         0.880     0.120     0.728  
H604      H         0.380     0.380     0.728  
H605      H         0.120     0.272     0.880  
H606      H         0.880     0.728     0.880  
H607      H         0.120     0.728     0.120  
H608      H         0.880     0.272     0.120  
H609      H         0.272     0.380     0.380  
H610      H         0.728     0.620     0.380  
H611      H         0.728     0.380     0.620  
H612      H         0.272     0.620     0.620  
H613      H         0.728     0.880     0.880  
H614      H         0.728     0.120     0.120  
H615      H         0.272     0.880     0.120  
H616      H         0.272     0.120     0.880  
H617      H         0.728     0.620     0.620  
H618      H         0.272     0.380     0.620  
H619      H         0.272     0.620     0.380  
H620      H         0.728     0.380     0.380  
H621      H         0.272     0.120     0.120  
H622      H         0.272     0.880     0.880  
H623      H         0.728     0.120     0.880  
H624      H         0.728     0.880     0.120  
loop_
